$DATA1 SOURCE='HSPICE' VERSION='O-2018.09-SP2 linux64' PARAM_COUNT=0
.TITLE '*--------------------------------------'
 delaynot1_fr     delaynot1_rf     iavg             energynot1      
 temper           alter#          
  2.665e-11        2.705e-11       -7.300e-07        1.460e-15      
   25.0000        1               
